FoamFile
{
    version 2.0;
    format ascii;
    class dictionary;
    location "system";
    object snappyStepDict;
}

gmsh
{
    meshSizeMax 0.005;
    meshSizeMin 0;
    meshSizeFactor 1;
    meshSizeFromCurvature 90;
    meshAlgorithm 6;
    scaling 1;
}

snappyHexMeshSetup
{
    edgeMesh yes;
    multiRegionFeatureSnap yes;
    generateBlockMeshDict yes;
    backgroundMeshSize (0.01 0.01 0.01);
    defaultSurfaceRefinement (2 2);
    defaultEdgeRefinement 1;
    overwriteRefinements no;
    refinementRegions yes;
    defaultRegionRefinement ((1 1));
}

locationInMesh
{
    beer (0.001659234284100643 0.051002544725990716 0.085);
}
